<?xml version="1.0" encoding="UTF-8"?>

<!-- generated on 2024-07-02 16:34:28.602384 by randomTrips.py UNKNOWN
<configuration>
    <net-file value="/home/ciot/MLProject/WirelessModel/wireless_simulator/scenario/Suwon/sumo/osm.net.xml.gz"/>
    <output-trip-file value="/home/ciot/MLProject/WirelessModel/wireless_simulator/scenario/Suwon/sumo/osm.passenger.trips.xml"/>
    <route-file value="/home/ciot/MLProject/WirelessModel/wireless_simulator/scenario/Suwon/sumo/osm.passenger.rou.xml"/>
    <prefix value="veh"/>
    <trip-attributes value="departLane=&quot;best&quot;"/>
    <fringe-start-attributes value="departSpeed=&quot;max&quot;"/>
    <vehicle-class value="passenger"/>
    <lanes value="True"/>
    <fringe-factor value="5"/>
    <allow-fringe.min-length value="1000.0"/>
    <via-edge-types value="highway.motorway,highway.motorway_link,highway.trunk_link,highway.primary_link,highway.secondary_link,highway.tertiary_link"/>
    <min-distance value="1000.0"/>
    <min-distance.fringe value="10.0"/>
    <remove-loops value="True"/>
    <validate value="True"/>
    <end value="1800.0"/>
    <insertion-density value="20.0"/>
</configuration>
-->

<!-- generated on 2024-07-02 16:34:28 by Eclipse SUMO duarouter Version 1.20.0
<configuration xmlns:xsi="http://www.w3.org/2001/XMLSchema-instance" xsi:noNamespaceSchemaLocation="http://sumo.dlr.de/xsd/duarouterConfiguration.xsd">

    <input>
        <net-file value="/home/ciot/MLProject/WirelessModel/wireless_simulator/scenario/Suwon/sumo/osm.net.xml.gz"/>
        <route-files value="/home/ciot/MLProject/WirelessModel/wireless_simulator/scenario/Suwon/sumo/osm.passenger.trips.xml"/>
    </input>

    <output>
        <output-file value="/home/ciot/MLProject/WirelessModel/wireless_simulator/scenario/Suwon/sumo/osm.passenger.rou.xml"/>
        <alternatives-output value="NUL"/>
    </output>

    <processing>
        <remove-loops value="true"/>
    </processing>

    <time>
        <begin value="0.0"/>
        <end value="1800.0"/>
    </time>

    <report>
        <no-warnings value="true"/>
        <ignore-errors value="true"/>
        <no-step-log value="true"/>
    </report>

</configuration>
-->

<routes xmlns:xsi="http://www.w3.org/2001/XMLSchema-instance" xsi:noNamespaceSchemaLocation="http://sumo.dlr.de/xsd/routes_file.xsd">
    <vType id="veh_passenger" vClass="passenger"/>
    <vehicle id="veh0" type="veh_passenger" depart="0.00" departLane="best">
        <route edges="537299517#0 -537299518#1 -537299518#0 -537299504#0 106520499#4 106520499#5 37395951#0 37395951#1 37395951#2 37395951#3 554658425 772657044 554658431 507449296#1 507449297#0 37394396 495344593 554663657 495344591 775445564#0 775445564#1 775445564#2 775445564#3 495344601"/>
    </vehicle>
    <vehicle id="veh1" type="veh_passenger" depart="2.18" departLane="best">
        <route edges="-537299513 537299512#1 537280230#8 106520499#0 106520499#2 106520499#3 106520499#4 106520499#5 37395951#0 37395951#1 37395951#2 37395951#3 554658425 772657044 554658431 507449296#1 507449297#0 37394396 495344593 -779730403#7 -779730403#6 -779730403#5 102532344#2 102532344#3 102532344#4 392180105#0"/>
    </vehicle>
    <vehicle id="veh2" type="veh_passenger" depart="4.37" departLane="best">
        <route edges="537470157 537470141#1 537470141#2 537470141#3 537470141#4 -507449298#0 -38137805 37394396 495344593 -779730403#7 -779730403#6 -779730403#5 102532344#2 102532344#3 102532344#4 102532344#5 1155674645#0 1155674645#1 1155674645#2 1155674645#3"/>
    </vehicle>
    <vehicle id="veh3" type="veh_passenger" depart="6.55" departLane="best">
        <route edges="775445566 479980585#0 470910592#0 470910593#0 470910593#1 470910593#2 494317219#3 494317219#4 494317219#5 779730403#5 779730403#6 779730403#7 102532334#0 102532334#1 102532329 38137805 507449298#0 -537470141#4 -537470141#3 -537470141#2 -537470141#1 -537470141#0 -537452104#2 537470144#0 537470144#1 537470147#0 537470147#1 537470147#2 -38316093#4 -537473695"/>
    </vehicle>
    <vehicle id="veh4" type="veh_passenger" depart="8.73" departLane="best">
        <route edges="-38316093#2 -537470175#1 -537470175#0 -59150647#2 -537470171#0 38316104#2 38316104#3 38316104#4 537470141#0 537470141#1 537470141#2 537470141#3 537470141#4 -507449298#0 -38137805 37394396 495344593 -779730403#7 -779730403#6 -779730403#5 102532344#2 102532344#3 392180099#0 392180099#1 392180099#2"/>
    </vehicle>
    <vehicle id="veh5" type="veh_passenger" depart="10.92" departLane="best">
        <route edges="537470174#0 -537470147#0 -537470144#1 -537470144#0 -537452104#1 -537452104#0 -537452100#8 -537452100#6 -537452100#4 -537452100#3 -537452100#2 -537452100#0 -38316111#2 -38316111#1 -38316111#0 1154683684#2 1154683684#3 1154683684#4 -1153435230#2 -1177183910 -1148725358 -495628566#1 479980583#0 479980581#1-AddedOnRampEdge 479980581#1 775445567#0 775445567#1 42007093#1"/>
    </vehicle>
    <vehicle id="veh6" type="veh_passenger" depart="13.10" departLane="best">
        <route edges="537472177#0 537472177#1 537470141#4 -507449298#0 -38137805 37394396 495344593 -779730403#7 -779730403#6 -779730403#5 102532344#2 102532344#3 392180099#0 392180099#1 392180099#2"/>
    </vehicle>
    <vehicle id="veh7" type="veh_passenger" depart="15.29" departLane="best" departSpeed="max">
        <route edges="537277440 1147590432#0 537302276 -1212916640#2 -1212916640#1 -1212916640#0 -1152870121#6 -1152870121#4 -1152870121#2 -1152870121#1 1152870119 471664441 772657041 554658431 507449296#1 507449297#0 37394396 495344593 -779730403#7 -779730403#6 -779730403#5 102532344#2 102532344#3 102532344#4 102532344#5 1155674645#0 1155674645#1"/>
    </vehicle>
    <vehicle id="veh8" type="veh_passenger" depart="17.47" departLane="best">
        <route edges="-470910615#0 -470910609#0 479980585#4 494317219#4 494317219#5 779730403#5 779730403#6 779730403#7 102532334#0 102532334#1 102532329 38137805 507449298#0 -537470141#4 -537470141#3 -537470141#2 -537470141#1 -537470141#0 -537452104#2 -537452104#1 -537452104#0 -537452100#8 -537452100#6 -537452100#4 -537452100#3 -537452100#2 -537452100#0 -38316111#2 -38316111#1 -38316111#0 -1154683684#1 468973156#0"/>
    </vehicle>
    <vehicle id="veh9" type="veh_passenger" depart="19.65" departLane="best">
        <route edges="-470910615#1 -470910615#0 -470910609#0 479980585#4 494317219#4 494317219#5 779730403#5 779730403#6 779730403#7 102532334#0 102532334#1 102532329 507449293#0 775219811 554663655#0 554658424 554658423#0 554658423#0-AddedOffRampEdge 468467130#0 468467130#0-AddedOffRampEdge 106520494 106520499#2 106520499#3 537299504#0 537299518#0 537299519"/>
    </vehicle>
    <vehicle id="veh10" type="veh_passenger" depart="21.84" departLane="best" departSpeed="max">
        <route edges="929201567#0 -929201569 479980578#2 477784541#0 477784541#1 618443481 1152834085 1152834968 106520488 589958521 -507449294 682645263 37395951#0 37395951#1 37395951#2 37395951#3 480013005 471664440#0"/>
    </vehicle>
    <vehicle id="veh11" type="veh_passenger" depart="24.02" departLane="best">
        <route edges="-537299507#3 -537299508 -537299506#0 -537299504#2 -537299504#1 -537299504#0 106520499#4 106520499#5 37395951#0 37395951#1 37395951#2 37395951#3 554658425 772657044 554658431 507449296#1 507449297#0 37394396 495344593 554663657 495344591 775445564#0 775445564#1"/>
    </vehicle>
    <vehicle id="veh12" type="veh_passenger" depart="26.20" departLane="best">
        <route edges="471664441 772657041 554658431 507449296#1 507449297#0 37394396 495344593 -779730403#7 -779730403#6 -779730403#5 -779730403#3 -779730403#1 -779730403#0"/>
    </vehicle>
    <vehicle id="veh13" type="veh_passenger" depart="28.39" departLane="best">
        <route edges="-537302256 537453285#3 -1212916640#1 -1212916640#0 -1152870121#6 -1152870121#4 -1152870121#2 -1152870121#1 1152870119 471664441 772657041 554658431 507449296#1 507449297#0 37394396 495344593 -779730403#7 -779730403#6 -779730403#5 102532344#2 102532344#3 102532344#4 102532344#5 1155674645#0 1155674645#1 -929201570#5"/>
    </vehicle>
    <vehicle id="veh14" type="veh_passenger" depart="30.57" departLane="best">
        <route edges="929201570#0 929201570#4 -1155674645#1 -1155674645#0 494317219#0 494317219#1 494317219#2 494317219#3 494317219#4 494317219#5 779730403#5 779730403#6 779730403#7 102532334#0 102532334#1 102532329 507449293#0 775219811 37394397 772657043 471664440#0 471664440#1 1152870121#0 1152870121#2 1152870121#3 1152870121#5 1212916640#0 1212916640#1"/>
    </vehicle>
    <vehicle id="veh15" type="veh_passenger" depart="32.75" departLane="best">
        <route edges="779730403#2 779730403#5 779730403#6 779730403#7 102532334#0 102532334#1 102532329 507449293#0 775219811 554663655#0 554658424 554658423#0 554658423#0-AddedOffRampEdge 554661205 507449294 38139657 554658422"/>
    </vehicle>
    <vehicle id="veh16" type="veh_passenger" depart="34.94" departLane="best" departSpeed="max">
        <route edges="495344597 -775445564#3 -775445564#2 -775445564#1 -775445564#0 -495344591 495344594 102532334#0 102532334#1 102532329 507449293#0 775219811 554663655#0 554658424 554658423#0 554658423#0-AddedOffRampEdge 554661205 507449294 -507449294 682645263 37395951#0"/>
    </vehicle>
    <vehicle id="veh17" type="veh_passenger" depart="37.12" departLane="best">
        <route edges="-102532327 -494317218 -494317217#1 -494317217#0 494317217#0 469011789 1155674644 -775445564#1 -775445564#0 -495344591 495344594 102532334#0 102532334#1 102532329 38137805 507449298#0 -537470141#4 -537470141#3 -537470141#2 -537470141#1 -537470141#0 -38316104#4 -38316104#3 -38316104#2 -537472171"/>
    </vehicle>
    <vehicle id="veh18" type="veh_passenger" depart="39.31" departLane="best">
        <route edges="1155674645#2 1155674645#3 1155674645#4 775445567#0 477784541#0 479980582 495628566#1 1148725358 1177183910 98440838 -1154683684#5 -1154683684#3 -1154683684#2 38316111#0 38316111#1 38316111#2 537452100#0 537301348#0"/>
    </vehicle>
    <vehicle id="veh19" type="veh_passenger" depart="41.49" departLane="best">
        <route edges="-929201569 479980578#2 477784541#0 477784541#1 618443481 1152834085 1152834968 106520488 589958521 -507449294 682645263 37395951#0 37395951#1 37395951#2 37395951#3 480013005 471664440#0 471664440#1 1152870121#0 1152870121#2 1152870121#3 1152870121#5 1212916640#0 1212916640#1 1212916640#2 -537302276 -1147590432#0 -38316093#6 -38316093#5 -38316093#4 -38316093#3 476450015"/>
    </vehicle>
    <vehicle id="veh20" type="veh_passenger" depart="43.67" departLane="best">
        <route edges="-392180102#1 -392180099#2 -392180106#0 -392180095 779730403#2 779730403#5 779730403#6 779730403#7 102532334#0 102532334#1 102532329 38137805 507449298#0 -537470141#4 -537470141#3 -537470141#2 -537470141#1 -537470141#0 -537452104#2 -537452104#1 -537452104#0 -537452100#8 -537452100#6 -537452100#4 -537452100#3 -537300954#3 -537300954#2"/>
    </vehicle>
    <vehicle id="veh21" type="veh_passenger" depart="45.86" departLane="best" departSpeed="max">
        <route edges="-537470155 38316093#6 1147590432#0 537302276 -1212916640#2 -1212916640#1 -1212916640#0 -1152870121#6 -1152870121#4 -1152870121#2 -1152870121#1 1152870119 471664441 772657041 554658431 507449296#1 507449297#0 37394396 495344593 -779730403#7 -779730403#6 -779730403#5 102532344#2 -392180104#5"/>
    </vehicle>
    <vehicle id="veh22" type="veh_passenger" depart="48.04" departLane="best">
        <route edges="-537299519 -537299518#0 -537299504#0 106520499#4 106520499#5 37395951#0 37395951#1 37395951#2 37395951#3 480013005 471664440#0 471664440#1 1152870121#0 1152870121#2 1152870121#3 1152870121#5 537452100#7 537452104#0 537452104#1 537452104#2 -38316104#4 -38316104#3 -38316104#2 -59150658#1 59150651"/>
    </vehicle>
    <vehicle id="veh23" type="veh_passenger" depart="50.22" departLane="best">
        <route edges="-537300953#1 -1152870121#1 1152870119 471664441 772657041 554658431 507449296#1 507449297#0 37394396 495344593 554663657 495344591 775445564#0 775445564#1 775445564#2 775445564#3 495344601"/>
    </vehicle>
    <vehicle id="veh24" type="veh_passenger" depart="52.41" departLane="best">
        <route edges="-537299509#1 -537299515#1 -537299515#0 -537299505#3 -537299505#2 -537299505#1 -537299505#0 106520501#4 1177183910 -1177183910 -1148725358 -495628566#1 479980583#0 479980581#1-AddedOnRampEdge 479980581#1 -1155674645#4 -1155674645#3 -1155674645#2 -1155674645#1 -1155674645#0 494317219#0 929201562#0 929201562#1 929201562#2 -470910592#1 -470910592#0"/>
    </vehicle>
    <vehicle id="veh25" type="veh_passenger" depart="54.59" departLane="best">
        <route edges="537299511#1 -537299504#1 -537299504#0 106520499#4 106520499#5 37395951#0 37395951#1 37395951#2 37395951#3 554658425 772657044 554658431 507449296#1 507449297#0 37394396 495344593 554663657 495344591 775445564#0 775445564#1 775445564#2 775445564#3 495344601"/>
    </vehicle>
    <vehicle id="veh26" type="veh_passenger" depart="56.77" departLane="best">
        <route edges="-775445566 -556954303 407710333 102532329 38137805 507449298#0 -537470141#4 -537470141#3 -537470141#2 -537470141#1 -537470141#0 -537452104#2 537470144#0 537470144#1 537470147#0 537470147#1 537470147#2 -38316093#4 -537473695"/>
    </vehicle>
    <vehicle id="veh27" type="veh_passenger" depart="58.96" departLane="best" departSpeed="max">
        <route edges="-775445567#2 -42007093#0 -618443478 1152834085 1152834968 106520488 589958521 -507449294 682645263 37395951#0 37395951#1 37395951#2 37395951#3 480013005 471664440#0 471664440#1 1152870121#0 1152870121#2 1152870121#3 1152870121#5 537452100#7"/>
    </vehicle>
    <vehicle id="veh28" type="veh_passenger" depart="61.14" departLane="best">
        <route edges="-929201562#2 -929201562#1 -929201562#0 494317219#1 494317219#2 494317219#3 494317219#4 494317219#5 779730403#5 779730403#6 779730403#7 102532334#0 102532334#1 102532329 507449293#0 775219811 554663655#0 554658424 554658423#0 554658423#0-AddedOffRampEdge 554661205 507449294 38139657 554658422"/>
    </vehicle>
    <vehicle id="veh29" type="veh_passenger" depart="63.33" departLane="best" departSpeed="max">
        <route edges="779730403#0 779730403#1 779730403#2 779730403#5 779730403#6 779730403#7 102532334#0 102532334#1 102532329 38137805 507449298#0 -537470141#4 -537470141#3 -537470141#2 -537470134#1 -537470134#0 656614697"/>
    </vehicle>
    <vehicle id="veh30" type="veh_passenger" depart="65.51" departLane="best">
        <route edges="537470174#2 -1147590432#1 537302276 -1212916640#2 -1212916640#1 -1212916640#0 -1152870121#6 -1152870121#4 -1152870121#2 -1152870121#1 1152870119 471664441 772657041 554658431 507449296#1 507449297#0 37394396 495344593 -779730403#7 -779730403#6 -779730403#5 102532344#2 102532344#3 102532344#4 102532344#5 -102532327 -494317218 -494317217#1"/>
    </vehicle>
    <vehicle id="veh31" type="veh_passenger" depart="67.69" departLane="best">
        <route edges="-775445564#3 -775445564#2 -775445564#1 -775445564#0 -495344591 495344594 102532334#0 102532334#1 102532329 507449293#0 775219811 554663655#0 554658424 554658423#0 554658423#0-AddedOffRampEdge 468467130#0 468467130#0-AddedOffRampEdge 106520494 106520499#2 106520499#3 106520499#4 106520501#0 106520501#2 106520501#3 106520501#4 1177183910"/>
    </vehicle>
    <vehicle id="veh32" type="veh_passenger" depart="69.88" departLane="best">
        <route edges="775445566 479980585#0 837535482#0 837535482#2 837535482#3 -476860661#1 837535479 -929201570#5 -929201570#3 479980579#2 479980579#2-AddedOffRampEdge 479980579#3 479980578#0 479980578#1-AddedOnRampEdge 479980578#1 929201569"/>
    </vehicle>
    <vehicle id="veh33" type="veh_passenger" depart="72.06" departLane="best">
        <route edges="1154683684#3 1154683684#4 -1153435230#2 -1177183910 -1148725358 -495628566#1 479980583#0 479980581#1-AddedOnRampEdge 479980581#1 -1155674645#4 -1155674645#3 -1155674645#2 -1155674645#1 392180101#0 392180101#1 392180101#2 -392180102#2"/>
    </vehicle>
    <vehicle id="veh34" type="veh_passenger" depart="74.24" departLane="best">
        <route edges="-470910605#2 -470910602 -779730403#5 102532344#2 102532344#3 102532344#4 102532344#5 1155674645#0 1155674645#1 1155674645#2 1155674645#3 1155674645#4 775445567#0 775445567#1 775445567#2"/>
    </vehicle>
    <vehicle id="veh35" type="veh_passenger" depart="76.43" departLane="best">
        <route edges="392180102#3 -392180106#4 -392180101#1 -392180101#0 -1155674645#0 494317219#0 494317219#1 494317219#2 494317219#3 494317219#4 494317219#5 494317219#6 494317219#7 775445564#1 775445564#2 775445564#3 495344601"/>
    </vehicle>
    <vehicle id="veh36" type="veh_passenger" depart="78.61" departLane="best">
        <route edges="-537300954#0 537452098#1 -1152870121#2 -1152870121#1 1152870119 471664441 772657041 554658431 507449296#1 507449297#0 37394396 495344593 -779730403#7 -779730403#6 -779730403#5 -779730403#3 -779730403#1 -779730403#0"/>
    </vehicle>
    <vehicle id="veh37" type="veh_passenger" depart="80.79" departLane="best">
        <route edges="-1155674645#3 -1155674645#2 -1155674645#1 -1155674645#0 494317219#0 494317219#1 494317219#2 494317219#3 494317219#4 494317219#5 779730403#5 779730403#6 779730403#7 102532334#0 102532334#1 102532329 38137805 507449298#0 -537470141#4 -537470141#3 -537470141#2 -537470141#1 -537470141#0 -537452104#2 -537452104#1 -537452104#0 -1147590432#3 -1147590432#2 -1147590432#1 -1147590432#0 1147590431"/>
    </vehicle>
    <vehicle id="veh38" type="veh_passenger" depart="82.98" departLane="best">
        <route edges="-1153435230#2 -1177183910 -1148725358 -495628566#1 479980583#0 479980581#1-AddedOnRampEdge 479980581#1 479980579#0 479980579#1 929201570#0"/>
    </vehicle>
    <vehicle id="veh39" type="veh_passenger" depart="85.16" departLane="best" departSpeed="max">
        <route edges="-392163930#2 -1152568326#5 -1152568326#2 -1154683684#5 -1154683684#3 -1154683684#2 38316111#0 38316111#1 38316111#2 537452100#0 537452100#2 537452100#3 537452100#4 537452100#5 537452100#7 537452104#0 79613689 537470152#0 537470152#1 38316093#6"/>
    </vehicle>
    <vehicle id="veh40" type="veh_passenger" depart="87.35" departLane="best">
        <route edges="470910593#2 494317219#3 494317219#4 494317219#5 779730403#5 779730403#6 779730403#7 102532334#0 102532334#1 102532329 507449293#0 775219811 37394397 772657043 471664440#0 471664440#1 1152870121#0 1152870121#2 1152870121#3 1152870121#5 1212916640#0 1212916640#1 -537453285#3 537302256"/>
    </vehicle>
    <vehicle id="veh41" type="veh_passenger" depart="89.53" departLane="best">
        <route edges="1152834968 106520488 589958521 -507449294 682645263 37395951#0 37395951#1 37395951#2 37395951#3 480013005 471664440#0 471664440#1 1152870121#0 1152870121#2 1152870121#3 1152870121#5 537452100#7 537452104#0 537452104#1 537452104#2 -38316104#4 -38316104#3 -38316104#2 -59150658#1 59150651"/>
    </vehicle>
    <vehicle id="veh42" type="veh_passenger" depart="91.71" departLane="best">
        <route edges="537470173#1 38316104#4 537470141#0 537470141#1 537470141#2 537470141#3 537470141#4 -507449298#0 -38137805 37394396 495344593 -779730403#7 -779730403#6 -779730403#5 102532344#2 102532344#3 392180099#0 -392180098#0"/>
    </vehicle>
    <vehicle id="veh43" type="veh_passenger" depart="93.90" departLane="best" departSpeed="max">
        <route edges="-775445567#2 -42007093#0 -618443478 1152834085 1152834968 106520488 589958521 -507449294 682645263 37395951#0 37395951#1 37395951#2 37395951#3 480013005 471664440#0 471664440#1 1152870121#0 1152870121#2 1152870121#3 1152870121#5 -537452100#6 -537452100#4"/>
    </vehicle>
    <vehicle id="veh44" type="veh_passenger" depart="96.08" departLane="best">
        <route edges="-102532327 -494317218 -494317217#1 -494317217#0 494317217#0 469011789 1155674644 -775445564#1 -775445564#0 -495344591 495344594 102532334#0 102532334#1 102532329 507449293#0 775219811 37394397 772657043 471664440#0 471664440#1 1152870121#0 1152870121#2 1152870121#3 1152870121#5 1212916640#0 1212916640#1 -537453285#3 537302256"/>
    </vehicle>
    <vehicle id="veh45" type="veh_passenger" depart="98.26" departLane="best">
        <route edges="-470910602 779730403#6 779730403#7 102532334#0 102532334#1 102532329 507449293#0 775219811 37394397 772657043 471664440#0 471664440#1 1152870121#0 1152870121#2 1152870121#3 1152870121#5 1212916640#0 1212916640#1 -537453285#3 -537453285#2 -537302255#2 -537302255#1"/>
    </vehicle>
    <vehicle id="veh46" type="veh_passenger" depart="100.45" departLane="best">
        <route edges="-1155674645#4 -1155674645#3 -1155674645#2 -1155674645#1 -1155674645#0 494317219#0 494317219#1 494317219#2 494317219#3 494317219#4 -470910605#2 -470910605#1 -470910605#0 556954302#1 556954302#2 556954301 556954297 556954298"/>
    </vehicle>
    <vehicle id="veh47" type="veh_passenger" depart="102.63" departLane="best">
        <route edges="-537470147#1 -537470147#0 -537470144#1 -537470144#0 537452104#2 537470141#0 537470141#1 537470141#2 537470141#3 537470141#4 -507449298#0 -38137805 37394396 495344593 -779730403#7 -779730403#6 -779730403#5 102532344#2 -392180104#5 -392180104#3 -392180104#1 392180102#0"/>
    </vehicle>
    <vehicle id="veh48" type="veh_passenger" depart="104.81" departLane="best">
        <route edges="-470910592#1 -470910592#0 837535482#0 837535482#2 837535482#3 -476860661#1 837535479 1155674645#2 1155674645#3 1155674645#4 775445567#0 477784541#0 479980582 495628566#1 1148725358 1177183910 98440838 1152568326#0 -469348626#1"/>
    </vehicle>
    <vehicle id="veh49" type="veh_passenger" depart="107.00" departLane="best">
        <route edges="537302268 537453285#2 537453285#3 -1212916640#1 -1212916640#0 -1152870121#6 -1152870121#4 -1152870121#2 -1152870121#1 1152870119 471664441 772657041 775219811 554663655#0 554658424 554658423#0 554658423#0-AddedOffRampEdge 554661205 507449294 38139657 554658422"/>
    </vehicle>
    <vehicle id="veh50" type="veh_passenger" depart="109.18" departLane="best">
        <route edges="537300961 1154683684#4 -1153435230#2 -1177183910 -1148725358 -495628566#1 479980583#0 479980581#1-AddedOnRampEdge 479980581#1 -1155674645#4 -1155674645#3 -1155674645#2 -1155674645#1 392180101#0 392180101#1 392180101#2 -392180102#2"/>
    </vehicle>
    <vehicle id="veh51" type="veh_passenger" depart="111.37" departLane="best">
        <route edges="537301350 38316111#2 537452100#0 537452100#2 537452100#3 537452100#4 537452100#5 -1152870121#6 -1152870121#4 -1152870121#2 -1152870121#1 1152870119 471664441 772657041 554658431 507449296#1 507449297#0 37394396 495344593 102532334#0 556954302#0 556954302#1 556954302#2 556954301 556954297 556954298"/>
    </vehicle>
    <vehicle id="veh52" type="veh_passenger" depart="113.55" departLane="best" departSpeed="max">
        <route edges="537473695 38316093#4 38316093#5 38316093#6 1147590432#0 537302276 -1212916640#2 -1212916640#1 -1212916640#0 -1152870121#6 -1152870121#4 -1152870121#2 -1152870121#1 1152870119 471664441 772657041 554658431 507449296#1 507449297#0 37394396 495344593 -779730403#7 -779730403#6 -779730403#5 -779730403#3"/>
    </vehicle>
    <vehicle id="veh53" type="veh_passenger" depart="115.73" departLane="best" departSpeed="max">
        <route edges="537302255#0 -537302256 537453285#3 -1212916640#1 -1212916640#0 -1152870121#6 -1152870121#4 -1152870121#2 -1152870121#1 1152870119 471664441 772657041 554658431 507449296#1 507449297#0 37394396 495344593 -779730403#7 -779730403#6 -779730403#5 102532344#2 102532344#3 102532344#4 392180105#0"/>
    </vehicle>
    <vehicle id="veh54" type="veh_passenger" depart="117.92" departLane="best">
        <route edges="-537470147#2 -537470147#1 -537470147#0 -537470144#1 -537470144#0 -537452104#1 -537452104#0 -537452100#8 -1152870121#6 -1152870121#4 -1152870121#2 -1152870121#1 1152870119 471664441 772657041 775219811 554663655#0 554658424 554658423#0 554658423#0-AddedOffRampEdge 554661205 507449294 38139657 554658422"/>
    </vehicle>
    <vehicle id="veh55" type="veh_passenger" depart="120.10" departLane="best" departSpeed="max">
        <route edges="779730403#0 779730403#1 779730403#2 779730403#5 779730403#6 779730403#7 102532334#0 102532334#1 102532329 507449293#0 775219811 37394397 772657043 471664440#0 471664440#1 1152870121#0 1152870121#2 1152870121#3 537300955#0 537452101"/>
    </vehicle>
    <vehicle id="veh56" type="veh_passenger" depart="122.28" departLane="best">
        <route edges="779730403#1 779730403#2 779730403#5 779730403#6 779730403#7 102532334#0 102532334#1 102532329 38137805 507449298#0 -537470141#4 -537470141#3 -537470141#2 -537470141#1 -537470141#0 -537452104#2 -537452104#1 -537452104#0 -1147590432#3 -1147590432#2 -1147590432#1 -1147590432#0 -537277440"/>
    </vehicle>
    <vehicle id="veh57" type="veh_passenger" depart="124.47" departLane="best">
        <route edges="-775445567#1 477784541#0 479980582 495628566#1 1148725358 1177183910 98440838 -1154683684#5 -1154683684#3 -1154683684#2 -1154683684#1 468973156#0 468973156#1 537453286#0 -537302259"/>
    </vehicle>
    <vehicle id="veh58" type="veh_passenger" depart="126.65" departLane="best">
        <route edges="-59150654#0 1147590432#3 537452104#0 537452104#1 537452104#2 537470141#0 537470141#1 537470141#2 537470141#3 537470141#4 -507449298#0 -38137805 37394396 495344593 -779730403#7 -779730403#6 -779730403#5 102532344#2 102532344#3 392180099#0 392180099#1"/>
    </vehicle>
    <vehicle id="veh59" type="veh_passenger" depart="128.83" departLane="best">
        <route edges="537300949#0 537452099 37395951#3 554658425 772657044 554658431 507449296#1 507449297#0 37394396 495344593 554663657 495344591 775445564#0 775445564#1 775445564#2 775445564#3 495344601"/>
    </vehicle>
    <vehicle id="veh60" type="veh_passenger" depart="131.02" departLane="best" departSpeed="max">
        <route edges="-554658422 1152569672 106520499#0 106520499#2 106520499#3 106520499#4 106520499#5 37395951#0 37395951#1 37395951#2 37395951#3 480013005 471664440#0 471664440#1 1152870121#0 1152870121#2 1152870121#3 1152870121#5 1212916640#0 1212916640#1 1212916640#2 -537302276 -1147590432#0 -38316093#6 -38316093#5 -38316093#4 -38316093#3 -38316093#2 -38316093#1 -38316093#0"/>
    </vehicle>
    <vehicle id="veh61" type="veh_passenger" depart="133.20" departLane="best" departSpeed="max">
        <route edges="-537453286#2 -537453286#1 -537453286#0 -468973156#1 -468973156#0 1154683684#1 1154683684#2 1154683684#3 1154683684#4 -1153435230#2 -1177183910 -1148725358 -495628566#1 479980583#0 479980581#1-AddedOnRampEdge 479980581#1 -1155674645#4 -1155674645#3 -1155674645#2 -837535479 476860661#0 -837535482#3"/>
    </vehicle>
    <vehicle id="veh62" type="veh_passenger" depart="135.39" departLane="best">
        <route edges="772657041 554658431 507449296#1 507449297#0 37394396 495344593 554663657 495344591 775445564#0 775445564#1 775445564#2 775445564#3 495344601"/>
    </vehicle>
    <vehicle id="veh63" type="veh_passenger" depart="137.57" departLane="best">
        <route edges="-537452104#2 -537452104#1 -537452104#0 -537452100#8 -1152870121#6 -1152870121#4 -1152870121#2 -1152870121#1 1152870119 471664441 772657041 775219811 554663655#0 554658424 554658423#0 554658423#0-AddedOffRampEdge 554661205 507449294 38139657"/>
    </vehicle>
    <vehicle id="veh64" type="veh_passenger" depart="139.75" departLane="best">
        <route edges="-102532327 -494317218 -494317217#1 -494317217#0 494317217#0 469011789 1155674644 -775445564#1 -775445564#0 -495344591 495344594 102532334#0 102532334#1 102532329 507449293#0 775219811 37394397 772657043 471664440#0 471664440#1 1152870121#0 1152870121#2 1152870121#3 1152870121#5 1212916640#0 1212916640#1 -537453285#3"/>
    </vehicle>
    <vehicle id="veh65" type="veh_passenger" depart="141.94" departLane="best">
        <route edges="470910593#1 470910593#2 494317219#3 494317219#4 494317219#5 779730403#5 779730403#6 779730403#7 102532334#0 102532334#1 102532329 38137805 507449298#0 -537470141#4 -537470141#3 -537470141#2 -537470141#1 -537470141#0 -537452104#2 537470144#0 537470144#1 537470147#0 537470147#1 537470147#2 -38316093#4 -537473695"/>
    </vehicle>
    <vehicle id="veh66" type="veh_passenger" depart="144.12" departLane="best">
        <route edges="494317218 102532327 494317219#0 494317219#1 494317219#2 494317219#3 494317219#4 494317219#5 779730403#5 779730403#6 779730403#7 102532334#0 102532334#1 102532329 38137805 507449298#0 -537470141#4 -537470141#3 -537470141#2 -537470141#1 -537470141#0 -537452104#2 -537452104#1 -537452104#0 -537452100#8 -537452100#6 -537452100#4 -537452100#3 -537300954#3 -537300954#2"/>
    </vehicle>
    <vehicle id="veh67" type="veh_passenger" depart="146.30" departLane="best">
        <route edges="-507449298#0 -38137805 507449293#0 775219811 554663655#0 554658424 554658423#0 554658423#0-AddedOffRampEdge 468467130#0 468467130#0-AddedOffRampEdge 468467130#3 -537280230#9 -537280230#7 -537280230#6 -537280230#4 -537280230#1"/>
    </vehicle>
    <vehicle id="veh68" type="veh_passenger" depart="148.49" departLane="best">
        <route edges="474484313 470910613#2 470910614#1 556954302#2 407710333 102532329 38137805 507449298#0 -537470141#4 -537470141#3 -537470141#2 -537470141#1 -537470141#0 -537452104#2 -537452104#1 -537452104#0 -1147590432#3 -1147590432#2 -1147590432#1 -1147590432#0"/>
    </vehicle>
    <vehicle id="veh69" type="veh_passenger" depart="150.67" departLane="best" departSpeed="max">
        <route edges="-392163930#2 537280230#0 537280230#2 537280230#5 537280230#7 537280230#8 106520499#0 106520499#2 106520499#3 106520499#4 106520499#5 37395951#0 37395951#1 37395951#2 37395951#3 554658425 772657044 554658431 507449296#1 507449297#0 37394396 495344593 554663657 495344591 495344608 469011788 494317217#1 494317218 102532327"/>
    </vehicle>
    <vehicle id="veh70" type="veh_passenger" depart="152.85" departLane="best" departSpeed="max">